Measurement: Raman, 785 nm, unoriented, Raman Data Processed
Mineral: Abhurite
Locality: Wreck of the SS Cheerful, 14 miles NNW of St. Ives, Cornwall, England
Rruff sample: R060227
Chemistry: Sn^2+^_21_Cl_16_(OH)_14_O_6_
Raman shift (cm-1)	intensity
106.612	17.368
109.986	95.19
113.361	32.898
116.736	85.975
120.111	144.654
123.486	1190.23
126.86	5354.35
130.235	8803.25
133.61	7912.91
136.985	5019.87
140.36	5220.85
143.735	7767.26
147.109	8891.52
150.484	6665.75
153.859	5031.59
157.234	4226.48
160.609	4767.86
163.984	6426
167.358	8296.78
170.733	8852.36
174.108	7192.26
177.483	5219.84
180.858	4285.75
184.232	4536.01
187.607	5770.21
190.982	8391.35
194.357	13872.5
197.732	24625
201.107	41579.2
204.481	59178.9
207.856	60291.6
211.231	39259.6
214.606	20095.3
217.98	10916.7
221.355	5840.46
224.73	3303.78
228.105	2069.88
231.48	1169.73
234.855	801.625
238.229	917.426
241.604	1585.59
244.979	2800.84
248.354	4759.92
251.729	7374.87
255.104	9114.24
258.478	8032.31
261.853	5045.7
265.228	2867.31
268.603	1501.66
271.978	808.482
275.352	444.827
278.727	247.431
282.102	65.804
285.477	166.313
288.852	217.972
292.227	288.19
295.601	243.15
298.976	207.469
302.351	8.2
305.726	114.553
309.101	255.053
312.475	413.264
315.85	540.412
319.225	704.731
322.6	880.424
325.975	1177.05
329.349	1504.13
332.724	1716.43
336.099	2114.98
339.474	2525.87
342.849	2960.97
346.224	3753.8
349.598	4620.87
352.973	5791.63
356.348	6824.06
359.723	7373.57
363.098	7399.85
366.472	6778.83
369.847	5831.23
373.222	4807.2
376.597	3553.55
379.972	2841.41
383.346	2135.95
386.721	1579.68
390.096	1184.96
393.471	830.067
396.846	581.271
400.221	354.476
403.595	167.215
406.97	15.423
410.345	14.816
413.72	1.368
417.095	9.853
420.47	86.745
423.844	144.402
427.219	190.962
430.594	205.146
433.969	176.425
437.344	304.27
440.718	399.448
444.093	501.475
447.468	609.434
450.843	739.681
454.218	839.992
457.592	925.104
460.967	1002.59
464.342	1122.63
467.717	1221.35
471.092	1307.03
474.466	1305.74
477.841	1124.27
481.216	810.085
484.591	555.423
487.966	386.179
491.341	238.552
494.715	162.972
498.09	90.889
501.465	1.11
504.84	20.926
508.215	44.893
511.59	16.127
514.964	16.238
518.339	4.786
521.714	32.036
525.089	70.587
528.464	225.192
531.838	131.951
535.213	126.062
538.588	166.871
541.963	164.423
545.338	181.855
548.713	136.22
552.087	152.252
555.462	148.276
558.837	188.373
562.212	141.983
565.586	131.464
568.961	172.279
572.336	98.818
575.711	50.392
579.086	63.205
582.461	42.089
585.835	50.872
589.21	45.543
592.585	25.553
595.96	16.76
599.335	45.211
602.709	4.618
606.084	44.51
609.459	4.626
612.834	2.914
616.209	59.725
619.584	22.302
622.958	20.245
626.333	31.642
629.708	17.935
633.083	6.297
636.458	18.825
639.833	7.284
643.207	24.833
646.582	4.787
649.957	14.067
653.332	27.929
656.707	8.015
660.081	23.524
663.456	18.083
666.831	24.242
670.206	45.2
673.581	39.521
676.955	27.53
680.33	2.233
683.705	11.648
687.08	9.556
690.455	47.148
693.83	3.381
697.204	38.219
700.579	55.288
703.954	28.441
707.329	33.994
710.704	32.086
714.078	19.676
717.453	16.976
720.828	18.152
724.203	35.356
727.578	26.711
730.953	30.713
734.327	46.605
737.702	44.534
741.077	27.056
744.452	34.172
747.827	18.595
751.201	49.268
754.576	33.79
757.951	35.044
761.326	30.377
764.701	47.205
768.076	10.702
771.45	36.573
774.825	38.755
778.2	21.926
781.575	17.978
784.95	2.272
788.324	23.304
791.699	37.44
795.074	17.945
798.449	8.628
801.824	28.11
805.198	7.806
808.573	11.083
811.948	7.259
815.323	49.239
818.698	13.83
822.073	32.544
825.447	33.535
828.822	9.407
832.197	11.557
835.572	52.436
838.947	42.917
842.321	54.674
845.696	40.547
849.071	39.908
852.446	39.589
855.821	38.904
859.195	32.457
862.57	34.237
865.945	31.358
869.32	49.808
872.695	67.983
876.07	77.643
879.444	50.425
882.819	38.522
886.194	22.951
889.569	11.006
892.944	2.05
896.318	20.077
899.693	7.876
903.068	20.906
906.443	40.701
909.818	10.798
913.193	52.861
916.567	73.752
919.942	51.232
923.317	38.567
926.692	30.022
930.067	55.359
933.442	35.406
936.816	1.286
940.191	4.427
943.566	6.592
946.941	7.397
950.316	17.527
953.69	47.126
957.065	30.028
960.44	35.298
963.815	94.713
967.19	61.993
970.565	88.306
973.939	122.318
977.314	136.6
980.689	249.469
984.064	305.209
987.438	370.924
990.813	417.615
994.188	411.371
997.563	375.595
1000.94	302.796
1004.31	264.405
1007.69	197.65
1011.06	134.318
1014.44	83.256
1017.81	59.571
1021.19	42.594
1024.56	11.43
1027.94	16.669
1031.31	23.287
1034.69	22.667
1038.06	30.52
1041.44	41.094
1044.81	52.041
1048.18	63.599
1051.56	72.231
1054.93	46.034
1058.31	50.611
1061.68	70.179
1065.06	41.678
1068.43	36.951
1071.81	41.615
1075.18	16.933
1078.56	16.186
1081.93	29.823
1085.31	8.267
1088.68	39.02
1092.06	0.976
1095.43	6.258
1098.81	17.343
1102.18	13.08
1105.56	0.41
1108.93	4.404
1112.31	27.266
1115.68	21.726
1119.06	37.499
1122.43	21.561
1125.81	16.599
1129.18	11.791
1132.56	27.562
1135.93	45.823
1139.31	32.664
1142.68	34.851
1146.06	16.956
1149.43	19.996
1152.8	29.75
1156.18	47.092
1159.55	47.307
1162.93	32.917
1166.3	11.471
1169.68	8.204
1173.05	8.933
1176.43	11.643
1179.8	0.483
1183.18	4.6
1186.55	30.13
1189.93	26.853
1193.3	12.901
1196.68	0.097
1200.05	28.977
1203.43	16.2
1206.8	16.479
1210.18	20.131
1213.55	14.874
1216.93	41.353
1220.3	29.729
1223.68	34.373
1227.05	32.484
1230.42	14.852
1233.8	17.471
1237.17	17.085
1240.55	5.451
1243.92	13.338
1247.3	10.741
1250.67	20.193
1254.05	22.143
1257.42	33.091
1260.8	40.953
1264.17	16.856
1267.55	26.447
